*SPEF "ieee 1481-1999"
*DESIGN "wrapped_solo_squash"
*DATE "11:11:11 Fri 11 11, 1111"
*VENDOR "OpenRCX"
*PROGRAM "Parallel Extraction"
*VERSION "1.0"
*DESIGN_FLOW "NAME_SCOPE LOCAL" "PIN_CAP NONE"
*DIVIDER /
*DELIMITER :
*BUS_DELIMITER []
*T_UNIT 1 NS
*C_UNIT 1 PF
*R_UNIT 1 OHM
*L_UNIT 1 HENRY

*NAME_MAP
*1 active
*2 io_in[0]
*3 io_in[10]
*4 io_in[11]
*5 io_in[12]
*6 io_in[13]
*7 io_in[14]
*8 io_in[15]
*9 io_in[16]
*10 io_in[17]
*11 io_in[18]
*12 io_in[19]
*13 io_in[1]
*14 io_in[20]
*15 io_in[21]
*16 io_in[22]
*17 io_in[23]
*18 io_in[24]
*19 io_in[25]
*20 io_in[26]
*21 io_in[27]
*22 io_in[28]
*23 io_in[29]
*24 io_in[2]
*25 io_in[30]
*26 io_in[31]
*27 io_in[32]
*28 io_in[33]
*29 io_in[34]
*30 io_in[35]
*31 io_in[36]
*32 io_in[37]
*33 io_in[3]
*34 io_in[4]
*35 io_in[5]
*36 io_in[6]
*37 io_in[7]
*38 io_in[8]
*39 io_in[9]
*40 io_oeb[0]
*41 io_oeb[10]
*42 io_oeb[11]
*43 io_oeb[12]
*44 io_oeb[13]
*45 io_oeb[14]
*46 io_oeb[15]
*47 io_oeb[16]
*48 io_oeb[17]
*49 io_oeb[18]
*50 io_oeb[19]
*51 io_oeb[1]
*52 io_oeb[20]
*53 io_oeb[21]
*54 io_oeb[22]
*55 io_oeb[23]
*56 io_oeb[24]
*57 io_oeb[25]
*58 io_oeb[26]
*59 io_oeb[27]
*60 io_oeb[28]
*61 io_oeb[29]
*62 io_oeb[2]
*63 io_oeb[30]
*64 io_oeb[31]
*65 io_oeb[32]
*66 io_oeb[33]
*67 io_oeb[34]
*68 io_oeb[35]
*69 io_oeb[36]
*70 io_oeb[37]
*71 io_oeb[3]
*72 io_oeb[4]
*73 io_oeb[5]
*74 io_oeb[6]
*75 io_oeb[7]
*76 io_oeb[8]
*77 io_oeb[9]
*78 io_out[0]
*79 io_out[10]
*80 io_out[11]
*81 io_out[12]
*82 io_out[13]
*83 io_out[14]
*84 io_out[15]
*85 io_out[16]
*86 io_out[17]
*87 io_out[18]
*88 io_out[19]
*89 io_out[1]
*90 io_out[20]
*91 io_out[21]
*92 io_out[22]
*93 io_out[23]
*94 io_out[24]
*95 io_out[25]
*96 io_out[26]
*97 io_out[27]
*98 io_out[28]
*99 io_out[29]
*100 io_out[2]
*101 io_out[30]
*102 io_out[31]
*103 io_out[32]
*104 io_out[33]
*105 io_out[34]
*106 io_out[35]
*107 io_out[36]
*108 io_out[37]
*109 io_out[3]
*110 io_out[4]
*111 io_out[5]
*112 io_out[6]
*113 io_out[7]
*114 io_out[8]
*115 io_out[9]
*118 wb_clk_i
*119 wb_rst_i
*120 wbs_ack_o
*121 wbs_adr_i[0]
*122 wbs_adr_i[10]
*123 wbs_adr_i[11]
*124 wbs_adr_i[12]
*125 wbs_adr_i[13]
*126 wbs_adr_i[14]
*127 wbs_adr_i[15]
*128 wbs_adr_i[16]
*129 wbs_adr_i[17]
*130 wbs_adr_i[18]
*131 wbs_adr_i[19]
*132 wbs_adr_i[1]
*133 wbs_adr_i[20]
*134 wbs_adr_i[21]
*135 wbs_adr_i[22]
*136 wbs_adr_i[23]
*137 wbs_adr_i[24]
*138 wbs_adr_i[25]
*139 wbs_adr_i[26]
*140 wbs_adr_i[27]
*141 wbs_adr_i[28]
*142 wbs_adr_i[29]
*143 wbs_adr_i[2]
*144 wbs_adr_i[30]
*145 wbs_adr_i[31]
*146 wbs_adr_i[3]
*147 wbs_adr_i[4]
*148 wbs_adr_i[5]
*149 wbs_adr_i[6]
*150 wbs_adr_i[7]
*151 wbs_adr_i[8]
*152 wbs_adr_i[9]
*153 wbs_cyc_i
*154 wbs_dat_i[0]
*155 wbs_dat_i[10]
*156 wbs_dat_i[11]
*157 wbs_dat_i[12]
*158 wbs_dat_i[13]
*159 wbs_dat_i[14]
*160 wbs_dat_i[15]
*161 wbs_dat_i[16]
*162 wbs_dat_i[17]
*163 wbs_dat_i[18]
*164 wbs_dat_i[19]
*165 wbs_dat_i[1]
*166 wbs_dat_i[20]
*167 wbs_dat_i[21]
*168 wbs_dat_i[22]
*169 wbs_dat_i[23]
*170 wbs_dat_i[24]
*171 wbs_dat_i[25]
*172 wbs_dat_i[26]
*173 wbs_dat_i[27]
*174 wbs_dat_i[28]
*175 wbs_dat_i[29]
*176 wbs_dat_i[2]
*177 wbs_dat_i[30]
*178 wbs_dat_i[31]
*179 wbs_dat_i[3]
*180 wbs_dat_i[4]
*181 wbs_dat_i[5]
*182 wbs_dat_i[6]
*183 wbs_dat_i[7]
*184 wbs_dat_i[8]
*185 wbs_dat_i[9]
*186 wbs_dat_o[0]
*187 wbs_dat_o[10]
*188 wbs_dat_o[11]
*189 wbs_dat_o[12]
*190 wbs_dat_o[13]
*191 wbs_dat_o[14]
*192 wbs_dat_o[15]
*193 wbs_dat_o[16]
*194 wbs_dat_o[17]
*195 wbs_dat_o[18]
*196 wbs_dat_o[19]
*197 wbs_dat_o[1]
*198 wbs_dat_o[20]
*199 wbs_dat_o[21]
*200 wbs_dat_o[22]
*201 wbs_dat_o[23]
*202 wbs_dat_o[24]
*203 wbs_dat_o[25]
*204 wbs_dat_o[26]
*205 wbs_dat_o[27]
*206 wbs_dat_o[28]
*207 wbs_dat_o[29]
*208 wbs_dat_o[2]
*209 wbs_dat_o[30]
*210 wbs_dat_o[31]
*211 wbs_dat_o[3]
*212 wbs_dat_o[4]
*213 wbs_dat_o[5]
*214 wbs_dat_o[6]
*215 wbs_dat_o[7]
*216 wbs_dat_o[8]
*217 wbs_dat_o[9]
*218 wbs_sel_i[0]
*219 wbs_sel_i[1]
*220 wbs_sel_i[2]
*221 wbs_sel_i[3]
*222 wbs_stb_i
*223 wbs_we_i
*224 _0000_
*225 _0001_
*226 _0002_
*227 _0003_
*228 _0004_
*229 _0005_
*230 _0006_
*231 _0007_
*232 _0008_
*233 _0009_
*234 _0010_
*235 _0011_
*236 _0012_
*237 _0013_
*238 _0014_
*239 _0015_
*240 _0016_
*241 _0017_
*242 _0018_
*243 _0019_
*244 _0020_
*245 _0021_
*246 _0022_
*247 _0023_
*248 _0024_
*249 _0025_
*250 _0026_
*251 _0027_
*252 _0028_
*253 _0029_
*254 _0030_
*255 _0031_
*256 _0032_
*257 _0033_
*258 _0034_
*259 _0035_
*260 _0036_
*261 _0037_
*262 _0038_
*263 _0039_
*264 _0040_
*265 _0041_
*266 _0042_
*267 _0043_
*268 _0044_
*269 _0045_
*270 _0046_
*271 _0047_
*272 _0048_
*273 _0049_
*274 _0050_
*275 _0051_
*276 _0052_
*277 _0053_
*278 _0054_
*279 _0055_
*280 _0056_
*281 _0057_
*282 _0058_
*283 _0059_
*284 _0060_
*285 _0061_
*286 _0062_
*287 _0063_
*288 _0064_
*289 _0065_
*290 _0066_
*291 _0067_
*292 _0068_
*293 _0069_
*294 _0070_
*295 _0071_
*296 _0072_
*297 _0073_
*298 _0074_
*299 _0075_
*300 _0076_
*301 _0077_
*302 _0078_
*303 _0079_
*304 _0080_
*305 _0081_
*306 _0082_
*307 _0083_
*308 _0084_
*309 _0085_
*310 _0086_
*311 _0087_
*312 _0088_
*313 _0089_
*314 _0090_
*315 _0091_
*316 _0092_
*317 _0093_
*318 _0094_
*319 _0095_
*320 _0096_
*321 _0097_
*322 _0098_
*323 _0099_
*324 _0100_
*325 _0101_
*326 _0102_
*327 _0103_
*328 _0104_
*329 _0105_
*330 _0106_
*331 _0107_
*332 _0108_
*333 _0109_
*334 _0110_
*335 _0111_
*336 _0112_
*337 _0113_
*338 _0114_
*339 _0115_
*340 _0116_
*341 _0117_
*342 _0118_
*343 _0119_
*344 _0120_
*345 _0121_
*346 _0122_
*347 _0123_
*348 _0124_
*349 _0125_
*350 _0126_
*351 _0127_
*352 _0128_
*353 _0129_
*354 _0130_
*355 _0131_
*356 _0132_
*357 _0133_
*358 _0134_
*359 _0135_
*360 _0136_
*361 _0137_
*362 _0138_
*363 _0139_
*364 _0140_
*365 _0141_
*366 _0142_
*367 _0143_
*368 _0144_
*369 _0145_
*370 _0146_
*371 _0147_
*372 _0148_
*373 _0149_
*374 _0150_
*375 _0151_
*376 _0152_
*377 _0153_
*378 _0154_
*379 _0155_
*380 _0156_
*381 _0157_
*382 _0158_
*383 _0159_
*384 _0160_
*385 _0161_
*386 _0162_
*387 _0163_
*388 _0164_
*389 _0165_
*390 _0166_
*391 _0167_
*392 _0168_
*393 _0169_
*394 _0170_
*395 _0171_
*396 _0172_
*397 _0173_
*398 _0174_
*399 _0175_
*400 _0176_
*401 _0177_
*402 _0178_
*403 _0179_
*404 _0180_
*405 _0181_
*406 _0182_
*407 _0183_
*408 _0184_
*409 _0185_
*410 _0186_
*411 _0187_
*412 _0188_
*413 _0189_
*414 _0190_
*415 _0191_
*416 _0192_
*417 _0193_
*418 _0194_
*419 _0195_
*420 _0196_
*421 _0197_
*422 _0198_
*423 _0199_
*424 _0200_
*425 _0201_
*426 _0202_
*427 _0203_
*428 _0204_
*429 _0205_
*430 _0206_
*431 _0207_
*432 _0208_
*433 _0209_
*434 _0210_
*435 _0211_
*436 _0212_
*437 _0213_
*438 _0214_
*439 _0215_
*440 _0216_
*441 _0217_
*442 _0218_
*443 _0219_
*444 _0220_
*445 _0221_
*446 _0222_
*447 _0223_
*448 _0224_
*449 _0225_
*450 _0226_
*451 _0227_
*452 _0228_
*453 _0229_
*454 _0230_
*455 _0231_
*456 _0232_
*457 _0233_
*458 _0234_
*459 _0235_
*460 _0236_
*461 _0237_
*462 _0238_
*463 _0239_
*464 _0240_
*465 _0241_
*466 _0242_
*467 _0243_
*468 _0244_
*469 _0245_
*470 _0246_
*471 _0247_
*472 _0248_
*473 _0249_
*474 _0250_
*475 _0251_
*476 _0252_
*477 _0253_
*478 _0254_
*479 _0255_
*480 _0256_
*481 _0257_
*482 _0258_
*483 _0259_
*484 _0260_
*485 _0261_
*486 _0262_
*487 _0263_
*488 _0264_
*489 _0265_
*490 _0266_
*491 _0267_
*492 _0268_
*493 _0269_
*494 _0270_
*495 _0271_
*496 _0272_
*497 _0273_
*498 _0274_
*499 _0275_
*500 _0276_
*501 _0277_
*502 _0278_
*503 _0279_
*504 _0280_
*505 _0281_
*506 _0282_
*507 _0283_
*508 _0284_
*509 _0285_
*510 _0286_
*511 _0287_
*512 _0288_
*513 _0289_
*514 _0290_
*515 _0291_
*516 _0292_
*517 _0293_
*518 _0294_
*519 _0295_
*520 _0296_
*521 _0297_
*522 _0298_
*523 _0299_
*524 _0300_
*525 _0301_
*526 _0302_
*527 _0303_
*528 _0304_
*529 _0305_
*530 _0306_
*531 _0307_
*532 _0308_
*533 _0309_
*534 _0310_
*535 _0311_
*536 _0312_
*537 _0313_
*538 _0314_
*539 _0315_
*540 _0316_
*541 _0317_
*542 _0318_
*543 _0319_
*544 _0320_
*545 _0321_
*546 _0322_
*547 _0323_
*548 _0324_
*549 _0325_
*550 _0326_
*551 _0327_
*552 _0328_
*553 _0329_
*554 _0330_
*555 _0331_
*556 _0332_
*557 _0333_
*558 _0334_
*559 _0335_
*560 _0336_
*561 _0337_
*562 _0338_
*563 _0339_
*564 _0340_
*565 _0341_
*566 _0342_
*567 _0343_
*568 _0344_
*569 _0345_
*570 _0346_
*571 _0347_
*572 _0348_
*573 _0349_
*574 _0350_
*575 _0351_
*576 _0352_
*577 _0353_
*578 _0354_
*579 _0355_
*580 _0356_
*581 _0357_
*582 _0358_
*583 _0359_
*584 _0360_
*585 _0361_
*586 _0362_
*587 _0363_
*588 _0364_
*589 _0365_
*590 _0366_
*591 _0367_
*592 _0368_
*593 _0369_
*594 _0370_
*595 _0371_
*596 _0372_
*597 _0373_
*598 _0374_
*599 _0375_
*600 _0376_
*601 _0377_
*602 _0378_
*603 _0379_
*604 _0380_
*605 _0381_
*606 _0382_
*607 _0383_
*608 _0384_
*609 _0385_
*610 _0386_
*611 _0387_
*612 _0388_
*613 _0389_
*614 _0390_
*615 _0391_
*616 _0392_
*617 _0393_
*618 _0394_
*619 _0395_
*620 _0396_
*621 _0397_
*622 _0398_
*623 _0399_
*624 _0400_
*625 _0401_
*626 _0402_
*627 _0403_
*628 _0404_
*629 _0405_
*630 _0406_
*631 _0407_
*632 _0408_
*633 _0409_
*634 _0410_
*635 _0411_
*636 _0412_
*637 _0413_
*638 _0414_
*639 _0415_
*640 _0416_
*641 _0417_
*642 _0418_
*643 _0419_
*644 _0420_
*645 _0421_
*646 _0422_
*647 _0423_
*648 _0424_
*649 _0425_
*650 _0426_
*651 _0427_
*652 _0428_
*653 _0429_
*654 _0430_
*655 _0431_
*656 _0432_
*657 _0433_
*658 _0434_
*659 _0435_
*660 _0436_
*661 _0437_
*662 _0438_
*663 _0439_
*664 _0440_
*665 _0441_
*666 _0442_
*667 _0443_
*668 _0444_
*669 _0445_
*670 _0446_
*671 _0447_
*672 _0448_
*673 _0449_
*674 _0450_
*675 _0451_
*676 _0452_
*677 _0453_
*678 _0454_
*679 _0455_
*680 _0456_
*681 _0457_
*682 _0458_
*683 _0459_
*684 _0460_
*685 _0461_
*686 _0462_
*687 _0463_
*688 _0464_
*689 _0465_
*690 _0466_
*691 _0467_
*692 _0468_
*693 _0469_
*694 _0470_
*695 _0471_
*696 _0472_
*697 _0473_
*698 _0474_
*699 _0475_
*700 _0476_
*701 _0477_
*702 _0478_
*703 _0479_
*704 _0480_
*705 _0481_
*706 _0482_
*707 _0483_
*708 _0484_
*709 _0485_
*710 _0486_
*711 _0487_
*712 _0488_
*713 _0489_
*714 _0490_
*715 _0491_
*716 _0492_
*717 _0493_
*718 _0494_
*719 _0495_
*720 _0496_
*721 _0497_
*722 _0498_
*723 _0499_
*724 _0500_
*725 _0501_
*726 _0502_
*727 _0503_
*728 _0504_
*729 _0505_
*730 _0506_
*731 _0507_
*732 _0508_
*733 _0509_
*734 _0510_
*735 _0511_
*736 _0512_
*737 _0513_
*738 _0514_
*739 _0515_
*740 _0516_
*741 _0517_
*742 _0518_
*743 _0519_
*744 _0520_
*745 _0521_
*746 _0522_
*747 _0523_
*748 _0524_
*749 _0525_
*750 _0526_
*751 _0527_
*752 _0528_
*753 _0529_
*754 _0530_
*755 _0531_
*756 _0532_
*757 _0533_
*758 _0534_
*759 _0535_
*760 _0536_
*761 _0537_
*762 _0538_
*763 _0539_
*764 _0540_
*765 _0541_
*766 _0542_
*767 _0543_
*768 _0544_
*769 _0545_
*770 _0546_
*771 _0547_
*772 _0548_
*773 _0549_
*774 _0550_
*775 _0551_
*776 _0552_
*777 _0553_
*778 _0554_
*779 _0555_
*780 _0556_
*781 _0557_
*782 _0558_
*783 _0559_
*784 _0560_
*785 _0561_
*786 _0562_
*787 _0563_
*788 _0564_
*789 _0565_
*790 _0566_
*791 _0567_
*792 _0568_
*793 _0569_
*794 _0570_
*795 _0571_
*796 _0572_
*797 _0573_
*798 _0574_
*799 _0575_
*800 _0576_
*801 _0577_
*802 _0578_
*803 _0579_
*804 _0580_
*805 _0581_
*806 _0582_
*807 _0583_
*808 _0584_
*809 _0585_
*810 _0586_
*811 _0587_
*812 _0588_
*813 _0589_
*814 _0590_
*815 _0591_
*816 _0592_
*817 _0593_
*818 _0594_
*819 _0595_
*820 _0596_
*821 _0597_
*822 _0598_
*823 _0599_
*824 _0600_
*825 _0601_
*826 _0602_
*827 _0603_
*828 _0604_
*829 _0605_
*830 _0606_
*831 _0607_
*832 _0608_
*833 _0609_
*834 _0610_
*835 _0611_
*836 _0612_
*837 _0613_
*838 _0614_
*839 _0615_
*840 _0616_
*841 _0617_
*842 _0618_
*843 _0619_
*844 _0620_
*845 _0621_
*846 _0622_
*847 _0623_
*848 _0624_
*849 _0625_
*850 _0626_
*851 _0627_
*852 adapter\.blue
*853 adapter\.debug_design_reset
*854 adapter\.game\.ballDirX
*855 adapter\.game\.ballDirY
*856 adapter\.game\.ballX\[0\]
*857 adapter\.game\.ballX\[1\]
*858 adapter\.game\.ballX\[2\]
*859 adapter\.game\.ballX\[3\]
*860 adapter\.game\.ballX\[4\]
*861 adapter\.game\.ballX\[5\]
*862 adapter\.game\.ballX\[6\]
*863 adapter\.game\.ballX\[7\]
*864 adapter\.game\.ballX\[8\]
*865 adapter\.game\.ballY\[0\]
*866 adapter\.game\.ballY\[1\]
*867 adapter\.game\.ballY\[2\]
*868 adapter\.game\.ballY\[3\]
*869 adapter\.game\.ballY\[4\]
*870 adapter\.game\.ballY\[5\]
*871 adapter\.game\.ballY\[6\]
*872 adapter\.game\.ballY\[7\]
*873 adapter\.game\.green
*874 adapter\.game\.h\[0\]
*875 adapter\.game\.h\[1\]
*876 adapter\.game\.h\[2\]
*877 adapter\.game\.h\[3\]
*878 adapter\.game\.h\[4\]
*879 adapter\.game\.h\[5\]
*880 adapter\.game\.h\[6\]
*881 adapter\.game\.h\[7\]
*882 adapter\.game\.h\[8\]
*883 adapter\.game\.h\[9\]
*884 adapter\.game\.hit
*885 adapter\.game\.hsync
*886 adapter\.game\.inBallX
*887 adapter\.game\.inBallY
*888 adapter\.game\.inPaddle
*889 adapter\.game\.offset\[0\]
*890 adapter\.game\.offset\[1\]
*891 adapter\.game\.offset\[2\]
*892 adapter\.game\.offset\[3\]
*893 adapter\.game\.offset\[4\]
*894 adapter\.game\.paddle\[0\]
*895 adapter\.game\.paddle\[1\]
*896 adapter\.game\.paddle\[2\]
*897 adapter\.game\.paddle\[3\]
*898 adapter\.game\.paddle\[4\]
*899 adapter\.game\.paddle\[5\]
*900 adapter\.game\.paddle\[6\]
*901 adapter\.game\.paddle\[7\]
*902 adapter\.game\.paddle\[8\]
*903 adapter\.game\.red
*904 adapter\.game\.speaker
*905 adapter\.game\.v\[0\]
*906 adapter\.game\.v\[1\]
*907 adapter\.game\.v\[2\]
*908 adapter\.game\.v\[3\]
*909 adapter\.game\.v\[4\]
*910 adapter\.game\.v\[5\]
*911 adapter\.game\.v\[6\]
*912 adapter\.game\.v\[7\]
*913 adapter\.game\.v\[8\]
*914 adapter\.game\.v\[9\]
*915 adapter\.game\.vsync
*916 clknet_0_wb_clk_i
*917 clknet_3_0__leaf_wb_clk_i
*918 clknet_3_1__leaf_wb_clk_i
*919 clknet_3_2__leaf_wb_clk_i
*920 clknet_3_3__leaf_wb_clk_i
*921 clknet_3_4__leaf_wb_clk_i
*922 clknet_3_5__leaf_wb_clk_i
*923 clknet_3_6__leaf_wb_clk_i
*924 clknet_3_7__leaf_wb_clk_i
*925 net1
*926 net10
*927 net100
*928 net101
*929 net102
*930 net103
*931 net104
*932 net105
*933 net11
*934 net12
*935 net13
*936 net14
*937 net15
*938 net16
*939 net17
*940 net18
*941 net19
*942 net2
*943 net20
*944 net21
*945 net22
*946 net23
*947 net24
*948 net25
*949 net26
*950 net27
*951 net28
*952 net29
*953 net3
*954 net30
*955 net31
*956 net32
*957 net33
*958 net34
*959 net35
*960 net36
*961 net37
*962 net38
*963 net39
*964 net4
*965 net40
*966 net41
*967 net42
*968 net43
*969 net44
*970 net45
*971 net46
*972 net47
*973 net48
*974 net49
*975 net5
*976 net50
*977 net51
*978 net52
*979 net53
*980 net54
*981 net55
*982 net56
*983 net57
*984 net58
*985 net59
*986 net6
*987 net60
*988 net61
*989 net62
*990 net63
*991 net64
*992 net65
*993 net66
*994 net67
*995 net68
*996 net69
*997 net7
*998 net70
*999 net71
*1000 net72
*1001 net73
*1002 net74
*1003 net75
*1004 net76
*1005 net77
*1006 net78
*1007 net79
*1008 net8
*1009 net80
*1010 net81
*1011 net82
*1012 net83
*1013 net84
*1014 net85
*1015 net86
*1016 net87
*1017 net88
*1018 net89
*1019 net9
*1020 net90
*1021 net91
*1022 net92
*1023 net93
*1024 net94
*1025 net95
*1026 net96
*1027 net97
*1028 net98
*1029 net99
*1030 FILLER_0_103
*1031 FILLER_0_110
*1032 FILLER_0_113
*1033 FILLER_0_13
*1034 FILLER_0_137
*1035 FILLER_0_141
*1036 FILLER_0_153
*1037 FILLER_0_165
*1038 FILLER_0_169
*1039 FILLER_0_17
*1040 FILLER_0_181
*1041 FILLER_0_193
*1042 FILLER_0_197
*1043 FILLER_0_209
*1044 FILLER_0_216
*1045 FILLER_0_225
*1046 FILLER_0_230
*1047 FILLER_0_236
*1048 FILLER_0_240
*1049 FILLER_0_253
*1050 FILLER_0_26
*1051 FILLER_0_276
*1052 FILLER_0_281
*1053 FILLER_0_289
*1054 FILLER_0_29
*1055 FILLER_0_295
*1056 FILLER_0_3
*1057 FILLER_0_307
*1058 FILLER_0_309
*1059 FILLER_0_321
*1060 FILLER_0_329
*1061 FILLER_0_335
*1062 FILLER_0_337
*1063 FILLER_0_349
*1064 FILLER_0_361
*1065 FILLER_0_365
*1066 FILLER_0_390
*1067 FILLER_0_393
*1068 FILLER_0_399
*1069 FILLER_0_52
*1070 FILLER_0_57
*1071 FILLER_0_64
*1072 FILLER_0_71
*1073 FILLER_0_82
*1074 FILLER_0_85
*1075 FILLER_0_9
*1076 FILLER_0_96
*1077 FILLER_10_109
*1078 FILLER_10_121
*1079 FILLER_10_133
*1080 FILLER_10_139
*1081 FILLER_10_141
*1082 FILLER_10_15
*1083 FILLER_10_153
*1084 FILLER_10_165
*1085 FILLER_10_177
*1086 FILLER_10_189
*1087 FILLER_10_195
*1088 FILLER_10_197
*1089 FILLER_10_209
*1090 FILLER_10_221
*1091 FILLER_10_233
*1092 FILLER_10_245
*1093 FILLER_10_251
*1094 FILLER_10_253
*1095 FILLER_10_265
*1096 FILLER_10_27
*1097 FILLER_10_277
*1098 FILLER_10_289
*1099 FILLER_10_29
*1100 FILLER_10_3
*1101 FILLER_10_301
*1102 FILLER_10_307
*1103 FILLER_10_309
*1104 FILLER_10_321
*1105 FILLER_10_333
*1106 FILLER_10_345
*1107 FILLER_10_357
*1108 FILLER_10_363
*1109 FILLER_10_365
*1110 FILLER_10_377
*1111 FILLER_10_383
*1112 FILLER_10_405
*1113 FILLER_10_41
*1114 FILLER_10_53
*1115 FILLER_10_65
*1116 FILLER_10_77
*1117 FILLER_10_83
*1118 FILLER_10_85
*1119 FILLER_10_97
*1120 FILLER_11_105
*1121 FILLER_11_111
*1122 FILLER_11_113
*1123 FILLER_11_125
*1124 FILLER_11_137
*1125 FILLER_11_149
*1126 FILLER_11_15
*1127 FILLER_11_161
*1128 FILLER_11_167
*1129 FILLER_11_169
*1130 FILLER_11_181
*1131 FILLER_11_193
*1132 FILLER_11_205
*1133 FILLER_11_217
*1134 FILLER_11_223
*1135 FILLER_11_225
*1136 FILLER_11_237
*1137 FILLER_11_249
*1138 FILLER_11_261
*1139 FILLER_11_27
*1140 FILLER_11_273
*1141 FILLER_11_279
*1142 FILLER_11_281
*1143 FILLER_11_293
*1144 FILLER_11_3
*1145 FILLER_11_305
*1146 FILLER_11_317
*1147 FILLER_11_329
*1148 FILLER_11_335
*1149 FILLER_11_337
*1150 FILLER_11_349
*1151 FILLER_11_361
*1152 FILLER_11_373
*1153 FILLER_11_385
*1154 FILLER_11_39
*1155 FILLER_11_391
*1156 FILLER_11_393
*1157 FILLER_11_400
*1158 FILLER_11_406
*1159 FILLER_11_51
*1160 FILLER_11_55
*1161 FILLER_11_57
*1162 FILLER_11_69
*1163 FILLER_11_81
*1164 FILLER_11_93
*1165 FILLER_12_109
*1166 FILLER_12_121
*1167 FILLER_12_133
*1168 FILLER_12_139
*1169 FILLER_12_141
*1170 FILLER_12_153
*1171 FILLER_12_165
*1172 FILLER_12_177
*1173 FILLER_12_189
*1174 FILLER_12_195
*1175 FILLER_12_197
*1176 FILLER_12_209
*1177 FILLER_12_221
*1178 FILLER_12_233
*1179 FILLER_12_245
*1180 FILLER_12_251
*1181 FILLER_12_253
*1182 FILLER_12_26
*1183 FILLER_12_265
*1184 FILLER_12_277
*1185 FILLER_12_289
*1186 FILLER_12_29
*1187 FILLER_12_3
*1188 FILLER_12_301
*1189 FILLER_12_307
*1190 FILLER_12_309
*1191 FILLER_12_321
*1192 FILLER_12_333
*1193 FILLER_12_345
*1194 FILLER_12_357
*1195 FILLER_12_363
*1196 FILLER_12_365
*1197 FILLER_12_377
*1198 FILLER_12_389
*1199 FILLER_12_400
*1200 FILLER_12_406
*1201 FILLER_12_41
*1202 FILLER_12_53
*1203 FILLER_12_65
*1204 FILLER_12_77
*1205 FILLER_12_83
*1206 FILLER_12_85
*1207 FILLER_12_97
*1208 FILLER_13_105
*1209 FILLER_13_11
*1210 FILLER_13_111
*1211 FILLER_13_113
*1212 FILLER_13_125
*1213 FILLER_13_137
*1214 FILLER_13_149
*1215 FILLER_13_161
*1216 FILLER_13_167
*1217 FILLER_13_169
*1218 FILLER_13_18
*1219 FILLER_13_181
*1220 FILLER_13_193
*1221 FILLER_13_205
*1222 FILLER_13_217
*1223 FILLER_13_223
*1224 FILLER_13_225
*1225 FILLER_13_237
*1226 FILLER_13_243
*1227 FILLER_13_268
*1228 FILLER_13_281
*1229 FILLER_13_293
*1230 FILLER_13_3
*1231 FILLER_13_30
*1232 FILLER_13_305
*1233 FILLER_13_317
*1234 FILLER_13_329
*1235 FILLER_13_335
*1236 FILLER_13_337
*1237 FILLER_13_349
*1238 FILLER_13_361
*1239 FILLER_13_373
*1240 FILLER_13_385
*1241 FILLER_13_391
*1242 FILLER_13_393
*1243 FILLER_13_405
*1244 FILLER_13_42
*1245 FILLER_13_54
*1246 FILLER_13_57
*1247 FILLER_13_69
*1248 FILLER_13_7
*1249 FILLER_13_81
*1250 FILLER_13_93
*1251 FILLER_14_109
*1252 FILLER_14_121
*1253 FILLER_14_133
*1254 FILLER_14_139
*1255 FILLER_14_141
*1256 FILLER_14_15
*1257 FILLER_14_153
*1258 FILLER_14_165
*1259 FILLER_14_177
*1260 FILLER_14_185
*1261 FILLER_14_191
*1262 FILLER_14_195
*1263 FILLER_14_197
*1264 FILLER_14_209
*1265 FILLER_14_221
*1266 FILLER_14_233
*1267 FILLER_14_245
*1268 FILLER_14_251
*1269 FILLER_14_253
*1270 FILLER_14_265
*1271 FILLER_14_27
*1272 FILLER_14_277
*1273 FILLER_14_289
*1274 FILLER_14_29
*1275 FILLER_14_3
*1276 FILLER_14_301
*1277 FILLER_14_307
*1278 FILLER_14_309
*1279 FILLER_14_321
*1280 FILLER_14_333
*1281 FILLER_14_345
*1282 FILLER_14_357
*1283 FILLER_14_363
*1284 FILLER_14_365
*1285 FILLER_14_377
*1286 FILLER_14_389
*1287 FILLER_14_401
*1288 FILLER_14_41
*1289 FILLER_14_53
*1290 FILLER_14_65
*1291 FILLER_14_77
*1292 FILLER_14_83
*1293 FILLER_14_85
*1294 FILLER_14_97
*1295 FILLER_15_105
*1296 FILLER_15_111
*1297 FILLER_15_113
*1298 FILLER_15_12
*1299 FILLER_15_125
*1300 FILLER_15_137
*1301 FILLER_15_149
*1302 FILLER_15_16
*1303 FILLER_15_161
*1304 FILLER_15_167
*1305 FILLER_15_169
*1306 FILLER_15_181
*1307 FILLER_15_187
*1308 FILLER_15_20
*1309 FILLER_15_209
*1310 FILLER_15_221
*1311 FILLER_15_225
*1312 FILLER_15_237
*1313 FILLER_15_249
*1314 FILLER_15_261
*1315 FILLER_15_273
*1316 FILLER_15_279
*1317 FILLER_15_281
*1318 FILLER_15_293
*1319 FILLER_15_3
*1320 FILLER_15_305
*1321 FILLER_15_317
*1322 FILLER_15_32
*1323 FILLER_15_329
*1324 FILLER_15_335
*1325 FILLER_15_337
*1326 FILLER_15_349
*1327 FILLER_15_361
*1328 FILLER_15_373
*1329 FILLER_15_385
*1330 FILLER_15_391
*1331 FILLER_15_393
*1332 FILLER_15_405
*1333 FILLER_15_44
*1334 FILLER_15_57
*1335 FILLER_15_69
*1336 FILLER_15_81
*1337 FILLER_15_93
*1338 FILLER_16_117
*1339 FILLER_16_127
*1340 FILLER_16_139
*1341 FILLER_16_141
*1342 FILLER_16_147
*1343 FILLER_16_159
*1344 FILLER_16_166
*1345 FILLER_16_178
*1346 FILLER_16_190
*1347 FILLER_16_197
*1348 FILLER_16_205
*1349 FILLER_16_211
*1350 FILLER_16_223
*1351 FILLER_16_235
*1352 FILLER_16_247
*1353 FILLER_16_251
*1354 FILLER_16_253
*1355 FILLER_16_26
*1356 FILLER_16_265
*1357 FILLER_16_277
*1358 FILLER_16_289
*1359 FILLER_16_29
*1360 FILLER_16_3
*1361 FILLER_16_301
*1362 FILLER_16_307
*1363 FILLER_16_309
*1364 FILLER_16_321
*1365 FILLER_16_333
*1366 FILLER_16_345
*1367 FILLER_16_357
*1368 FILLER_16_363
*1369 FILLER_16_365
*1370 FILLER_16_377
*1371 FILLER_16_383
*1372 FILLER_16_405
*1373 FILLER_16_41
*1374 FILLER_16_53
*1375 FILLER_16_65
*1376 FILLER_16_77
*1377 FILLER_16_83
*1378 FILLER_16_85
*1379 FILLER_16_93
*1380 FILLER_17_11
*1381 FILLER_17_111
*1382 FILLER_17_113
*1383 FILLER_17_120
*1384 FILLER_17_132
*1385 FILLER_17_144
*1386 FILLER_17_153
*1387 FILLER_17_157
*1388 FILLER_17_166
*1389 FILLER_17_169
*1390 FILLER_17_177
*1391 FILLER_17_181
*1392 FILLER_17_189
*1393 FILLER_17_201
*1394 FILLER_17_209
*1395 FILLER_17_217
*1396 FILLER_17_222
*1397 FILLER_17_225
*1398 FILLER_17_23
*1399 FILLER_17_232
*1400 FILLER_17_244
*1401 FILLER_17_256
*1402 FILLER_17_268
*1403 FILLER_17_281
*1404 FILLER_17_293
*1405 FILLER_17_3
*1406 FILLER_17_305
*1407 FILLER_17_317
*1408 FILLER_17_329
*1409 FILLER_17_335
*1410 FILLER_17_337
*1411 FILLER_17_349
*1412 FILLER_17_35
*1413 FILLER_17_361
*1414 FILLER_17_373
*1415 FILLER_17_385
*1416 FILLER_17_391
*1417 FILLER_17_393
*1418 FILLER_17_398
*1419 FILLER_17_405
*1420 FILLER_17_47
*1421 FILLER_17_55
*1422 FILLER_17_57
*1423 FILLER_17_69
*1424 FILLER_17_7
*1425 FILLER_17_81
*1426 FILLER_17_93
*1427 FILLER_17_99
*1428 FILLER_18_104
*1429 FILLER_18_112
*1430 FILLER_18_120
*1431 FILLER_18_130
*1432 FILLER_18_138
*1433 FILLER_18_141
*1434 FILLER_18_152
*1435 FILLER_18_160
*1436 FILLER_18_169
*1437 FILLER_18_178
*1438 FILLER_18_187
*1439 FILLER_18_194
*1440 FILLER_18_197
*1441 FILLER_18_203
*1442 FILLER_18_211
*1443 FILLER_18_219
*1444 FILLER_18_223
*1445 FILLER_18_229
*1446 FILLER_18_241
*1447 FILLER_18_249
*1448 FILLER_18_253
*1449 FILLER_18_26
*1450 FILLER_18_265
*1451 FILLER_18_277
*1452 FILLER_18_289
*1453 FILLER_18_29
*1454 FILLER_18_294
*1455 FILLER_18_3
*1456 FILLER_18_306
*1457 FILLER_18_309
*1458 FILLER_18_321
*1459 FILLER_18_333
*1460 FILLER_18_345
*1461 FILLER_18_357
*1462 FILLER_18_363
*1463 FILLER_18_365
*1464 FILLER_18_377
*1465 FILLER_18_383
*1466 FILLER_18_405
*1467 FILLER_18_41
*1468 FILLER_18_53
*1469 FILLER_18_65
*1470 FILLER_18_77
*1471 FILLER_18_83
*1472 FILLER_18_85
*1473 FILLER_18_97
*1474 FILLER_19_105
*1475 FILLER_19_111
*1476 FILLER_19_113
*1477 FILLER_19_125
*1478 FILLER_19_13
*1479 FILLER_19_133
*1480 FILLER_19_145
*1481 FILLER_19_150
*1482 FILLER_19_158
*1483 FILLER_19_165
*1484 FILLER_19_169
*1485 FILLER_19_178
*1486 FILLER_19_182
*1487 FILLER_19_190
*1488 FILLER_19_196
*1489 FILLER_19_201
*1490 FILLER_19_210
*1491 FILLER_19_222
*1492 FILLER_19_225
*1493 FILLER_19_237
*1494 FILLER_19_249
*1495 FILLER_19_25
*1496 FILLER_19_257
*1497 FILLER_19_266
*1498 FILLER_19_277
*1499 FILLER_19_281
*1500 FILLER_19_291
*1501 FILLER_19_3
*1502 FILLER_19_301
*1503 FILLER_19_313
*1504 FILLER_19_325
*1505 FILLER_19_333
*1506 FILLER_19_337
*1507 FILLER_19_349
*1508 FILLER_19_361
*1509 FILLER_19_37
*1510 FILLER_19_373
*1511 FILLER_19_385
*1512 FILLER_19_391
*1513 FILLER_19_393
*1514 FILLER_19_398
*1515 FILLER_19_406
*1516 FILLER_19_49
*1517 FILLER_19_55
*1518 FILLER_19_57
*1519 FILLER_19_69
*1520 FILLER_19_81
*1521 FILLER_19_9
*1522 FILLER_19_92
*1523 FILLER_19_98
*1524 FILLER_1_105
*1525 FILLER_1_111
*1526 FILLER_1_113
*1527 FILLER_1_124
*1528 FILLER_1_149
*1529 FILLER_1_161
*1530 FILLER_1_167
*1531 FILLER_1_169
*1532 FILLER_1_181
*1533 FILLER_1_193
*1534 FILLER_1_199
*1535 FILLER_1_221
*1536 FILLER_1_225
*1537 FILLER_1_248
*1538 FILLER_1_273
*1539 FILLER_1_279
*1540 FILLER_1_281
*1541 FILLER_1_289
*1542 FILLER_1_29
*1543 FILLER_1_3
*1544 FILLER_1_312
*1545 FILLER_1_324
*1546 FILLER_1_337
*1547 FILLER_1_349
*1548 FILLER_1_378
*1549 FILLER_1_385
*1550 FILLER_1_391
*1551 FILLER_1_393
*1552 FILLER_1_398
*1553 FILLER_1_405
*1554 FILLER_1_54
*1555 FILLER_1_57
*1556 FILLER_1_7
*1557 FILLER_1_80
*1558 FILLER_20_117
*1559 FILLER_20_127
*1560 FILLER_20_134
*1561 FILLER_20_141
*1562 FILLER_20_15
*1563 FILLER_20_153
*1564 FILLER_20_165
*1565 FILLER_20_175
*1566 FILLER_20_184
*1567 FILLER_20_197
*1568 FILLER_20_209
*1569 FILLER_20_221
*1570 FILLER_20_225
*1571 FILLER_20_231
*1572 FILLER_20_238
*1573 FILLER_20_244
*1574 FILLER_20_249
*1575 FILLER_20_253
*1576 FILLER_20_262
*1577 FILLER_20_27
*1578 FILLER_20_270
*1579 FILLER_20_280
*1580 FILLER_20_29
*1581 FILLER_20_294
*1582 FILLER_20_3
*1583 FILLER_20_306
*1584 FILLER_20_309
*1585 FILLER_20_321
*1586 FILLER_20_333
*1587 FILLER_20_345
*1588 FILLER_20_357
*1589 FILLER_20_363
*1590 FILLER_20_365
*1591 FILLER_20_377
*1592 FILLER_20_389
*1593 FILLER_20_400
*1594 FILLER_20_406
*1595 FILLER_20_41
*1596 FILLER_20_53
*1597 FILLER_20_65
*1598 FILLER_20_77
*1599 FILLER_20_83
*1600 FILLER_20_85
*1601 FILLER_20_91
*1602 FILLER_20_97
*1603 FILLER_21_100
*1604 FILLER_21_113
*1605 FILLER_21_121
*1606 FILLER_21_128
*1607 FILLER_21_14
*1608 FILLER_21_140
*1609 FILLER_21_151
*1610 FILLER_21_159
*1611 FILLER_21_166
*1612 FILLER_21_169
*1613 FILLER_21_181
*1614 FILLER_21_189
*1615 FILLER_21_196
*1616 FILLER_21_207
*1617 FILLER_21_215
*1618 FILLER_21_222
*1619 FILLER_21_225
*1620 FILLER_21_244
*1621 FILLER_21_252
*1622 FILLER_21_26
*1623 FILLER_21_270
*1624 FILLER_21_278
*1625 FILLER_21_281
*1626 FILLER_21_289
*1627 FILLER_21_298
*1628 FILLER_21_3
*1629 FILLER_21_302
*1630 FILLER_21_308
*1631 FILLER_21_322
*1632 FILLER_21_334
*1633 FILLER_21_337
*1634 FILLER_21_349
*1635 FILLER_21_361
*1636 FILLER_21_373
*1637 FILLER_21_38
*1638 FILLER_21_385
*1639 FILLER_21_391
*1640 FILLER_21_393
*1641 FILLER_21_405
*1642 FILLER_21_50
*1643 FILLER_21_57
*1644 FILLER_21_69
*1645 FILLER_21_81
*1646 FILLER_21_93
*1647 FILLER_22_11
*1648 FILLER_22_116
*1649 FILLER_22_128
*1650 FILLER_22_141
*1651 FILLER_22_15
*1652 FILLER_22_159
*1653 FILLER_22_167
*1654 FILLER_22_187
*1655 FILLER_22_19
*1656 FILLER_22_195
*1657 FILLER_22_197
*1658 FILLER_22_201
*1659 FILLER_22_218
*1660 FILLER_22_226
*1661 FILLER_22_232
*1662 FILLER_22_244
*1663 FILLER_22_253
*1664 FILLER_22_265
*1665 FILLER_22_27
*1666 FILLER_22_277
*1667 FILLER_22_283
*1668 FILLER_22_29
*1669 FILLER_22_292
*1670 FILLER_22_3
*1671 FILLER_22_304
*1672 FILLER_22_309
*1673 FILLER_22_316
*1674 FILLER_22_328
*1675 FILLER_22_340
*1676 FILLER_22_352
*1677 FILLER_22_365
*1678 FILLER_22_377
*1679 FILLER_22_389
*1680 FILLER_22_401
*1681 FILLER_22_41
*1682 FILLER_22_53
*1683 FILLER_22_65
*1684 FILLER_22_7
*1685 FILLER_22_77
*1686 FILLER_22_83
*1687 FILLER_22_85
*1688 FILLER_22_97
*1689 FILLER_23_105
*1690 FILLER_23_111
*1691 FILLER_23_113
*1692 FILLER_23_121
*1693 FILLER_23_129
*1694 FILLER_23_136
*1695 FILLER_23_140
*1696 FILLER_23_144
*1697 FILLER_23_156
*1698 FILLER_23_169
*1699 FILLER_23_181
*1700 FILLER_23_193
*1701 FILLER_23_200
*1702 FILLER_23_212
*1703 FILLER_23_220
*1704 FILLER_23_225
*1705 FILLER_23_237
*1706 FILLER_23_243
*1707 FILLER_23_260
*1708 FILLER_23_268
*1709 FILLER_23_273
*1710 FILLER_23_279
*1711 FILLER_23_281
*1712 FILLER_23_29
*1713 FILLER_23_293
*1714 FILLER_23_3
*1715 FILLER_23_305
*1716 FILLER_23_313
*1717 FILLER_23_322
*1718 FILLER_23_334
*1719 FILLER_23_337
*1720 FILLER_23_349
*1721 FILLER_23_361
*1722 FILLER_23_373
*1723 FILLER_23_385
*1724 FILLER_23_391
*1725 FILLER_23_393
*1726 FILLER_23_405
*1727 FILLER_23_41
*1728 FILLER_23_53
*1729 FILLER_23_57
*1730 FILLER_23_69
*1731 FILLER_23_7
*1732 FILLER_23_81
*1733 FILLER_23_93
*1734 FILLER_24_109
*1735 FILLER_24_121
*1736 FILLER_24_131
*1737 FILLER_24_139
*1738 FILLER_24_141
*1739 FILLER_24_149
*1740 FILLER_24_166
*1741 FILLER_24_174
*1742 FILLER_24_184
*1743 FILLER_24_197
*1744 FILLER_24_203
*1745 FILLER_24_215
*1746 FILLER_24_227
*1747 FILLER_24_233
*1748 FILLER_24_241
*1749 FILLER_24_249
*1750 FILLER_24_253
*1751 FILLER_24_26
*1752 FILLER_24_261
*1753 FILLER_24_279
*1754 FILLER_24_29
*1755 FILLER_24_290
*1756 FILLER_24_3
*1757 FILLER_24_302
*1758 FILLER_24_306
*1759 FILLER_24_309
*1760 FILLER_24_313
*1761 FILLER_24_322
*1762 FILLER_24_334
*1763 FILLER_24_346
*1764 FILLER_24_358
*1765 FILLER_24_365
*1766 FILLER_24_377
*1767 FILLER_24_383
*1768 FILLER_24_40
*1769 FILLER_24_405
*1770 FILLER_24_52
*1771 FILLER_24_64
*1772 FILLER_24_76
*1773 FILLER_24_85
*1774 FILLER_24_89
*1775 FILLER_24_97
*1776 FILLER_25_106
*1777 FILLER_25_113
*1778 FILLER_25_125
*1779 FILLER_25_137
*1780 FILLER_25_149
*1781 FILLER_25_15
*1782 FILLER_25_155
*1783 FILLER_25_159
*1784 FILLER_25_167
*1785 FILLER_25_169
*1786 FILLER_25_178
*1787 FILLER_25_198
*1788 FILLER_25_210
*1789 FILLER_25_218
*1790 FILLER_25_222
*1791 FILLER_25_225
*1792 FILLER_25_243
*1793 FILLER_25_25
*1794 FILLER_25_255
*1795 FILLER_25_268
*1796 FILLER_25_281
*1797 FILLER_25_287
*1798 FILLER_25_296
*1799 FILLER_25_3
*1800 FILLER_25_307
*1801 FILLER_25_315
*1802 FILLER_25_322
*1803 FILLER_25_329
*1804 FILLER_25_335